LAMMPS (2 Aug 2023 - Update 3)
Loaded 1 plugins from C:\Users\Acer\AppData\Local\LAMMPS 64-bit 2Aug2023\plugins
# --------------------- INITIALIZATION --------------------------
units          metal    # others include, ij, si, cgs, real, micro, nano, etc

# --------------------- VARIABLES -------------------------------
# This commands assigns one or more strings to a variable name for evaluation later in the input script or during a simulation
variable latparam equal 3.61
variable material string Cu

# ----------------------SETUP SIMULATION BOX and ATOMS --------------------
atom_style     atomic             # amoeba or angle or atomic or body or bond or charge or dielectric or dipole or dpd etc.
lattice fcc 3.61
Lattice spacing in x,y,z = 3.61 3.61 3.61
dimension      3                  # dimension we are considering,  by default 3,  (2 also exist)
region box block 0 10 0 10 0 10   # creating a geometric region in space
boundary       p p p              # x y z = p (periodic), = f (is non-periodic and fixed), s = non-periodic and shrink-wrapped, etc

create_box 1 box                  # creating a box region
Created orthogonal box = (0 0 0) to (36.1 36.1 36.1)
create_atoms 1 region box
Created 4000 atoms

# ------------ FORCE FIELDS (INTERATOMIC POTENTIAL) -----------------------
pair_style meam                                                           # pair potentials are defined between pairs of atoms that are within a cutoff distance
pair_coeff * * library.meam Cu Cu.meam Cu
Reading MEAM library file C:\Users\Acer\AppData\Local\LAMMPS 64-bit 2Aug2023\Potentials\library.meam with DATE: 2012-06-29
Reading MEAM potential file C:\Users\Acer\AppData\Local\LAMMPS 64-bit 2Aug2023\Potentials\Cu.meam with DATE: 2007-06-11

# ------------- Operations and diagnostics ------------------------------

compute peratom all pe/atom
compute virial all stress/atom NULL

# ------------- SETTINGS  -------------------------------------------------
reset_timestep 0
timestep 0

# ------------- OUTPUT  -------------------------------------------------

thermo 100
thermo_style custom step lx ly lz press pxx pyy pzz pe temp
dump 2 all custom 1000 md.lammpstrj id type x y z

# ------------- ACTIONS  ------------------------------
# minimize 1.0e-4  1.0e-4 100000 100000

# >>>>>>>>>>> FIRST RUN <<<<<<<<<<<<<<<<<<<<<<<<
fix 1 all npt temp 300 300 1 iso 0 0 1 drag 1
velocity all create 300 12345 mom yes rot no
run 4000
Step           Lx             Ly             Lz           Press           Pxx            Pyy            Pzz           PotEng          Temp
0   36.1           36.1           36.1           15228.088      15158.711      15282.495      15243.059     -14158.578      300
Averages over the last 21 of 41 rows, steps 2000 to 4000:
Lx Ly Lz Press Pxx Pyy Pzz PotEng Temp
36.1 36.1 36.1 15228.1 15158.7 15282.5 15243.1 -14158.6 300
Loop time of 79.0174 on 1 procs for 4000 steps with 4000 atoms

unfix 1
